/*--------------------------------*- C++ -*----------------------------------*\
| =========                 |                                                 |
| \\      /  F ield         | foam-extend: Open Source CFD                    |
|  \\    /   O peration     | Version:     4.0                                |
|   \\  /    A nd           | Web:         http://www.foam-extend.org         |
|    \\/     M anipulation  |                                                 |
\*---------------------------------------------------------------------------*/
FoamFile
{
    version     2.0;
    format      ascii;
    class       polyBoundaryMesh;
    location    "constant/polyMesh";
    object      boundary;
}
// * * * * * * * * * * * * * * * * * * * * * * * * * * * * * * * * * * * * * //

3
(
    electrode
    {
        type            patch;
        nFaces          1;
        startFace       1999;
    }
    ground
    {
        type            patch;
        nFaces          1;
        startFace       2000;
    }
    otherfaces
    {
        type            empty;
        nFaces          8000;
        startFace       2001;
    }
)


// ************************************************************************* //
